Representative_Reconfigurable_Test_Networks/selected_reconfigurable_networks/reconfigurable_case_1MP.m
function mpc = reconfigurable_case_1MP

% function mpc = ../matpowerfiles/LV_fg78
mpc.version = '2';
mpc.baseMVA = 1;
mpc.bus = [
	1812	3	0.0	0.0	0.0	0.0	118	1	0	0.23	1	1.1	0.9;
	1813	1	0.0	0.0	0.0	0.0	118	1	0	0.23	1	1.1	0.9;
	1814	1	0.0	0.0	0.0	0.0	118	1	0	0.23	1	1.1	0.9;
	1815	1	0.0	0.0	0.0	0.0	118	1	0	0.23	1	1.1	0.9;
	1816	1	0.0	0.0	0.0	0.0	118	1	0	0.23	1	1.1	0.9;
	1817	1	0.0	0.0	0.0	0.0	118	1	0	0.23	1	1.1	0.9;
	1818	1	0.006149698414122999	0.000653036664322	0.0	0.0	118	1	0	0.23	1	1.1	0.9;
	1819	1	0.0	0.0	0.0	0.0	118	1	0	0.23	1	1.1	0.9;
	1820	1	0.005171637283357	0.0005261382493620001	0.0	0.0	118	1	0	0.23	1	1.1	0.9;
	1821	1	0.0	0.0	0.0	0.0	118	1	0	0.23	1	1.1	0.9;
	1822	1	0.006411009653207001	0.000619196176214	0.0	0.0	118	1	0	0.23	1	1.1	0.9;
	1823	1	0.0	0.0	0.0	0.0	118	1	0	0.23	1	1.1	0.9;
	1824	1	0.006435352614319	0.000574575125263	0.0	0.0	118	1	0	0.23	1	1.1	0.9;
	1825	1	0.0	0.0	0.0	0.0	118	1	0	0.23	1	1.1	0.9;
	1826	1	0.003898347290206	0.000450465555355	0.0	0.0	118	1	0	0.23	1	1.1	0.9;
	1827	1	0.0	0.0	0.0	0.0	118	1	0	0.23	1	1.1	0.9;
	1828	1	0.002938782827976	0.000319589195586	0.0	0.0	118	1	0	0.23	1	1.1	0.9;
	1829	1	0.0	0.0	0.0	0.0	118	1	0	0.23	1	1.1	0.9;
	1830	1	0.004339566453324999	0.0003907979855	0.0	0.0	118	1	0	0.23	1	1.1	0.9;
	1831	1	0.0	0.0	0.0	0.0	118	1	0	0.23	1	1.1	0.9;
	1832	1	0.0	0.0	0.0	0.0	118	1	0	0.23	1	1.1	0.9;
	1833	1	0.0	0.0	0.0	0.0	118	1	0	0.23	1	1.1	0.9;
	1834	1	0.0	0.0	0.0	0.0	118	1	0	0.23	1	1.1	0.9;
	3372	3	0.0	0.0	0.0	0.0	224	1	0	0.23	1	1.1	0.9;
];

mpc.gen = [
	1812	0.0	0.0	Inf	-Inf	1	1	1	Inf	-Inf;
	3372	0.0	0.0	Inf	-Inf	1	1	1	Inf	-Inf;
];

mpc.gencost = [
	2	0	0	2	1	0;
	2	0	0	2	1	0;
];

mpc.branch = [
	1812	1813	0.087866118147448	0.03234499054820416	0	0	0	0	0	0	1	-89.9	89.9;
	1813	1814	0.051549868620037805	0.018976370510396974	0	0	0	0	0	0	1	-89.9	89.9;
	1814	1815	0.031165627599243854	0.011472589792060492	0	0	0	0	0	0	1	-89.9	89.9;
	1815	1816	0.06970799338374291	0.02566068052930057	0	0	0	0	0	0	1	-89.9	89.9;
	1816	1817	0.10742102173913043	0.03954347826086957	0	0	0	0	0	0	1	-89.9	89.9;
	1817	1818	0.00021739130434782607	2.835538752362949e-05	0	0	0	0	0	0	1	-89.9	89.9;
	1817	1819	0.10838130718336485	0.03989697542533081	0	0	0	0	0	0	1	-89.9	89.9;
	1819	1820	0.00021739130434782607	2.835538752362949e-05	0	0	0	0	0	0	1	-89.9	89.9;
	1819	1821	0.09148901323251417	0.033678638941398865	0	0	0	0	0	0	1	-89.9	89.9;
	1821	1822	0.00021739130434782607	2.835538752362949e-05	0	0	0	0	0	0	1	-89.9	89.9;
	1821	1823	0.07477131663516068	0.027524574669187143	0	0	0	0	0	0	1	-89.9	89.9;
	1823	1824	0.00021739130434782607	2.835538752362949e-05	0	0	0	0	0	0	1	-89.9	89.9;
	1823	1825	0.10227039981096409	0.03764744801512287	0	0	0	0	0	0	1	-89.9	89.9;
	1825	1826	0.00021739130434782607	2.835538752362949e-05	0	0	0	0	0	0	1	-89.9	89.9;
	1825	1827	0.08699313137996219	0.03202362948960302	0	0	0	0	0	0	1	-89.9	89.9;
	1827	1828	0.00021739130434782607	2.835538752362949e-05	0	0	0	0	0	0	1	-89.9	89.9;
	1827	1829	0.08232265217391302	0.03030434782608695	0	0	0	0	0	0	1	-89.9	89.9;
	1829	1830	0.00021739130434782607	2.835538752362949e-05	0	0	0	0	0	0	1	-89.9	89.9;
	1829	1831	0.0378003270321361	0.01391493383742911	0	0	0	0	0	0	1	-89.9	89.9;
	1831	1832	0.03216956238185255	0.011842155009451797	0	0	0	0	0	0	1	-89.9	89.9;
	1832	1833	0.026451499054820415	0.009737240075614368	0	0	0	0	0	0	1	-89.9	89.9;
	1833	1834	0.02885221266540643	0.010620982986767486	0	0	0	0	0	0	1	-89.9	89.9;
	3372	1834	0.0001890359168241966	1.8903591682419658e-05	0	0	0	0	0	0	1	-89.9	89.9;
];

% adds current ratings, is_switch boolean, and default switch state to the branch matrix
%column_names%	c_rating_a	is_switch	z_branch_start	branch_id
mpc.branch_extensions = [
	0.07015	1	1	1694;
	0.07015	0	1	1695;
	0.07015	0	1	1696;
	0.07015	0	1	1697;
	0.07015	0	1	1698;
	0.0276	0	1	1699;
	0.07015	0	1	1700;
	0.0276	0	1	1701;
	0.07015	0	1	1702;
	0.0276	0	1	1703;
	0.07015	0	1	1704;
	0.0276	0	1	1705;
	0.07015	0	1	1706;
	0.0276	0	1	1707;
	0.07015	0	1	1708;
	0.0276	0	1	1709;
	0.07015	0	1	1710;
	0.0276	0	1	1711;
	0.07015	0	1	1712;
	0.07015	0	1	1713;
	0.07015	0	1	1714;
	0.07015	0	1	1715;
	2.3000000000000003	1	0	3669;
];